# generated using pymatgen
data_Bi2Te3
_symmetry_space_group_name_H-M   'P 1'
_cell_length_a   4.41813045
_cell_length_b   4.41813045
_cell_length_c   32.25729904
_cell_angle_alpha   90.00000000
_cell_angle_beta   90.00000000
_cell_angle_gamma   120.00000000
_symmetry_Int_Tables_number   1
_chemical_formula_structural   Bi2Te3
_chemical_formula_sum   'Bi6 Te9'
_cell_volume   545.30025510
_cell_formula_units_Z   3
loop_
 _symmetry_equiv_pos_site_id
 _symmetry_equiv_pos_as_xyz
  1  'x, y, z'
loop_
 _atom_type_symbol
 _atom_type_oxidation_number
  Bi3+  3.0
  Te2-  -2.0
loop_
 _atom_site_type_symbol
 _atom_site_label
 _atom_site_symmetry_multiplicity
 _atom_site_fract_x
 _atom_site_fract_y
 _atom_site_fract_z
 _atom_site_occupancy
  Bi3+  Bi0  1  0.33333333  0.66666667  0.26983690  1
  Bi3+  Bi1  1  0.33333333  0.66666667  0.06349644  1
  Bi3+  Bi2  1  0.00000000  0.00000000  0.60317023  1
  Bi3+  Bi3  1  0.00000000  0.00000000  0.39682977  1
  Bi3+  Bi4  1  0.66666667  0.33333333  0.93650356  1
  Bi3+  Bi5  1  0.66666667  0.33333333  0.73016310  1
  Te2-  Te6  1  0.66666667  0.33333333  0.11652559  1
  Te2-  Te7  1  0.00000000  0.00000000  0.00000000  1
  Te2-  Te8  1  0.00000000  0.00000000  0.21680774  1
  Te2-  Te9  1  0.33333333  0.66666667  0.44985893  1
  Te2-  Te10  1  0.66666667  0.33333333  0.33333333  1
  Te2-  Te11  1  0.66666667  0.33333333  0.55014107  1
  Te2-  Te12  1  0.00000000  0.00000000  0.78319226  1
  Te2-  Te13  1  0.33333333  0.66666667  0.66666667  1
  Te2-  Te14  1  0.33333333  0.66666667  0.88347441  1
